Version 4
SHEET 1 4820 4672
WIRE 560 352 512 352
WIRE 720 352 672 352
WIRE 864 352 816 352
WIRE 512 384 512 352
WIRE 672 384 672 352
WIRE 816 384 816 352
WIRE 512 496 512 464
WIRE 672 496 672 464
WIRE 816 496 816 464
WIRE 112 640 112 592
WIRE -224 688 -256 688
WIRE 0 688 -144 688
WIRE 272 688 224 688
WIRE 1200 688 1200 656
WIRE 896 736 864 736
WIRE 1120 736 976 736
WIRE 1520 736 1280 736
WIRE 1664 736 1520 736
WIRE -112 752 -256 752
WIRE 0 752 -32 752
WIRE 384 752 224 752
WIRE 432 752 384 752
WIRE 528 752 432 752
WIRE 1008 784 864 784
WIRE 1120 784 1088 784
WIRE 1376 784 1296 784
WIRE 432 800 432 752
WIRE 0 816 -64 816
WIRE 304 816 224 816
WIRE 320 816 304 816
WIRE 528 816 528 752
WIRE 1520 848 1520 736
WIRE 1664 848 1664 736
WIRE 1200 864 1200 832
WIRE 112 912 112 864
WIRE 1376 912 1376 784
WIRE 1376 912 1328 912
WIRE 1424 912 1376 912
WIRE -64 928 -64 816
WIRE 432 928 432 880
WIRE 528 928 528 880
WIRE 320 960 320 816
WIRE 320 960 272 960
WIRE 368 960 320 960
WIRE 1328 960 1328 912
WIRE 1664 960 1664 912
WIRE 1424 976 1424 912
WIRE 1520 992 1520 928
WIRE 272 1008 272 960
WIRE 368 1024 368 960
WIRE 1328 1088 1328 1040
WIRE 1424 1088 1424 1040
WIRE 272 1136 272 1088
WIRE 368 1136 368 1088
FLAG 672 496 0
FLAG 720 352 Vdd
FLAG 816 496 0
FLAG 864 352 CLK
FLAG 432 928 0
FLAG 512 496 0
FLAG 1200 656 0
FLAG 1520 992 0
FLAG 528 928 0
FLAG 272 688 Vdd
FLAG -256 752 CLK
FLAG 560 352 Din
FLAG -256 688 Din
FLAG -64 928 0
FLAG 1664 960 0
FLAG 272 1136 0
FLAG 368 1136 0
FLAG 384 752 Q1
FLAG 304 816 _Q1
FLAG 112 592 Vdd
FLAG 112 912 Vdd
FLAG 1200 864 0
FLAG 1328 1088 0
FLAG 1424 1088 0
FLAG 864 784 CLK
FLAG 864 736 Din
SYMBOL voltage 672 368 R0
WINDOW 123 0 0 Left 0
WINDOW 39 0 0 Left 0
SYMATTR InstName V1
SYMATTR Value 5
SYMBOL voltage 816 368 R0
WINDOW 123 0 0 Left 0
WINDOW 39 0 0 Left 0
SYMATTR InstName V2
SYMATTR Value PULSE(0 5 5u 2n 2n 0.1u 0.2u)
SYMBOL res 448 784 M0
SYMATTR InstName R1
SYMATTR Value 500
SYMBOL voltage 512 368 M0
WINDOW 123 0 0 Left 0
WINDOW 39 0 0 Left 0
SYMATTR InstName V3
SYMATTR Value PULSE(0 5 10.5u 2n 2n 0.2u 0.4u)
SYMBOL Digital\\dflop 1200 688 R0
SYMATTR InstName A1
SYMBOL res 1504 832 R0
SYMATTR InstName R2
SYMATTR Value 500
SYMBOL cap 544 816 M0
SYMATTR InstName C1
SYMATTR Value 50p
SYMBOL res -128 672 R90
WINDOW 0 0 56 VBottom 2
WINDOW 3 32 56 VTop 2
SYMATTR InstName R5
SYMATTR Value 50
SYMBOL d_flip_flop 112 752 R0
SYMATTR InstName X2
SYMBOL cap 1680 848 M0
SYMATTR InstName C3
SYMATTR Value 50p
SYMBOL res 288 992 M0
SYMATTR InstName R4
SYMATTR Value 500
SYMBOL cap 384 1024 M0
SYMATTR InstName C2
SYMATTR Value 50p
SYMBOL res -16 736 R90
WINDOW 0 0 56 VBottom 2
WINDOW 3 32 56 VTop 2
SYMATTR InstName R6
SYMATTR Value 50
SYMBOL res 1344 944 M0
SYMATTR InstName R8
SYMATTR Value 500
SYMBOL cap 1440 976 M0
SYMATTR InstName C4
SYMATTR Value 50p
SYMBOL res 992 720 R90
WINDOW 0 0 56 VBottom 2
WINDOW 3 32 56 VTop 2
SYMATTR InstName R3
SYMATTR Value 50
SYMBOL res 1104 768 R90
WINDOW 0 0 56 VBottom 2
WINDOW 3 32 56 VTop 2
SYMATTR InstName R7
SYMATTR Value 50
TEXT 808 1064 Left 2 !.tran 0 14u 1u uic
TEXT 808 1040 Left 2 !.lib 5827_035.lib
