Version 4
SHEET 1 960 680
WIRE 240 -704 208 -704
WIRE 272 -704 240 -704
WIRE 240 -688 240 -704
WIRE -128 -656 -240 -656
WIRE 64 -656 -64 -656
WIRE 240 -576 240 -608
WIRE 240 -576 160 -576
WIRE 240 -560 240 -576
WIRE -240 -544 -240 -656
WIRE -240 -544 -288 -544
WIRE -208 -544 -240 -544
WIRE 64 -544 64 -656
WIRE 64 -544 16 -544
WIRE 96 -544 64 -544
WIRE 448 -544 416 -544
WIRE 480 -544 448 -544
WIRE 448 -512 448 -544
WIRE -336 -480 -400 -480
WIRE -240 -480 -272 -480
WIRE -208 -480 -240 -480
WIRE 160 -480 160 -576
WIRE 160 -480 16 -480
WIRE 240 -448 240 -480
WIRE -208 -416 -368 -416
WIRE 160 -416 16 -416
WIRE 448 -400 448 -432
WIRE -208 -352 -288 -352
WIRE 80 -352 16 -352
WIRE 80 -336 80 -352
WIRE 160 -320 160 -416
WIRE 240 -320 240 -368
WIRE 240 -320 160 -320
WIRE 80 -256 80 -272
WIRE -240 -208 -240 -480
WIRE 240 -208 240 -320
WIRE 240 -208 -240 -208
FLAG 448 -400 0
FLAG 96 -544 5V
FLAG -288 -544 0
FLAG 80 -256 0
FLAG 240 -704 5V
FLAG -288 -352 5V
FLAG -400 -480 0
FLAG 448 -544 5V
FLAG -368 -416 out
SYMBOL voltage 448 -528 R0
WINDOW 123 0 0 Left 0
WINDOW 39 0 0 Left 0
SYMATTR InstName V1
SYMATTR Value 5
SYMBOL cap -64 -672 R90
WINDOW 0 0 32 VBottom 2
WINDOW 3 32 32 VTop 2
SYMATTR InstName C1
SYMATTR Value 0.1µ
SYMBOL res 224 -704 R0
SYMATTR InstName R1
SYMATTR Value 453
SYMBOL res 224 -576 R0
SYMATTR InstName R2
SYMATTR Value 115k
SYMBOL cap 64 -336 R0
SYMATTR InstName C2
SYMATTR Value 0.01µ
SYMBOL cap -272 -496 R90
WINDOW 0 0 32 VBottom 2
WINDOW 3 32 32 VTop 2
SYMATTR InstName C3
SYMATTR Value 0.012µ
SYMBOL LMC555 -96 -448 R0
SYMATTR InstName U1
SYMATTR SpiceLine ""
SYMBOL res 224 -464 R0
SYMATTR InstName R4
SYMATTR Value 1.82k
TEXT -240 32 Left 2 !.tran 0 .03 0 startup
TEXT -240 56 Left 2 !.include 5827_035.lib
TEXT -240 -120 Left 2 !.meas t2 find time when v(out)={vth} cross=12
TEXT -240 -144 Left 2 !.meas t1 find time when v(out)={vth} cross=11
TEXT -240 -56 Left 2 !.meas frequency param 1/(t3-t1)
TEXT -240 -168 Left 2 !.param vth=2.5
TEXT -240 -96 Left 2 !.meas t3 find time when v(out)={vth} cross=13
TEXT -240 -32 Left 2 !.meas duty_cycle param (t2-t1)/(t3-t1)
