Version 4
SHEET 1 912 680
WIRE 384 -16 -176 -16
WIRE 608 -16 384 -16
WIRE 608 16 608 -16
WIRE 384 96 384 -16
WIRE -176 112 -176 -16
WIRE 16 128 -16 128
WIRE 160 128 16 128
WIRE 336 128 240 128
WIRE 496 144 448 144
WIRE 544 144 496 144
WIRE 608 144 608 96
WIRE 608 144 544 144
WIRE 112 160 80 160
WIRE 240 160 112 160
WIRE 336 160 320 160
WIRE -16 176 -16 128
WIRE 80 176 80 160
WIRE 496 192 496 144
WIRE 608 192 608 144
WIRE -176 304 -176 192
WIRE -16 304 -16 256
WIRE -16 304 -176 304
WIRE 80 304 80 256
WIRE 80 304 -16 304
WIRE 384 304 384 192
WIRE 384 304 80 304
WIRE 496 304 496 256
WIRE 496 304 384 304
WIRE 608 304 608 272
WIRE 608 304 496 304
WIRE -176 320 -176 304
FLAG -176 320 0
FLAG 544 144 out
FLAG 16 128 in_a
FLAG 112 160 in_b
SYMBOL voltage -176 96 M0
WINDOW 123 0 0 Left 0
WINDOW 39 0 0 Left 0
SYMATTR InstName V1
SYMATTR Value {vcc}
SYMBOL voltage -16 160 M0
WINDOW 3 -197 199 Left 2
WINDOW 123 43 82 Left 2
WINDOW 39 0 0 Left 2
SYMATTR Value PULSE(0 {vcc} 250n 1p 1p 500n 1u)
SYMATTR InstName Vin1
SYMBOL res 256 112 R90
WINDOW 0 0 56 VBottom 2
WINDOW 3 64 53 VTop 2
SYMATTR InstName R1
SYMATTR Value 50
SYMBOL cap 480 192 R0
SYMATTR InstName C1
SYMATTR Value 50p
SYMBOL voltage 80 160 M0
WINDOW 3 -548 200 Left 2
WINDOW 123 43 82 Left 2
WINDOW 39 0 0 Left 2
SYMATTR Value PULSE(0 {vcc} 500n 1p 1p 500n 1u)
SYMATTR InstName Vin2
SYMBOL nand 400 144 R0
SYMATTR InstName X1
SYMBOL res 336 144 R90
WINDOW 0 -32 60 VBottom 2
WINDOW 3 64 53 VTop 2
SYMATTR InstName R2
SYMATTR Value 50
SYMBOL res 592 0 R0
SYMATTR InstName R3
SYMATTR Value 500
SYMBOL res 592 176 R0
SYMATTR InstName R4
SYMATTR Value 500
TEXT -184 472 Left 2 !.tran 0 3u 0 0.1n
TEXT -184 448 Left 2 !.lib 5827_035.lib
TEXT -184 416 Left 2 !.param vcc=5 vth={vcc/2}
TEXT -184 536 Left 2 !.meas t2 find time when v(out)={vth} cross=4
TEXT -184 512 Left 2 !.meas t1 find time when v(in_a)={vth} cross=4
TEXT -184 560 Left 2 !.meas Tx param t2-t1
TEXT -184 624 Left 2 !.meas t4 find time when v(out)={vth} cross=3
TEXT -184 600 Left 2 !.meas t3 find time when v(in_b)={vth} cross=3
TEXT -184 648 Left 2 !.meas Ty param t4-t3
