Version 4
SHEET 1 4820 4672
WIRE 720 352 672 352
WIRE 672 384 672 352
WIRE -288 496 -336 496
WIRE 672 496 672 464
WIRE -336 528 -336 496
WIRE -336 640 -336 608
WIRE -288 704 -336 704
WIRE -336 736 -336 704
WIRE -336 848 -336 816
WIRE -464 928 -512 928
WIRE -512 960 -512 928
WIRE -288 1136 -336 1136
WIRE -336 1168 -336 1136
WIRE -512 1200 -512 1040
WIRE -336 1280 -336 1248
WIRE -288 1344 -336 1344
WIRE -512 1376 -512 1280
WIRE -336 1376 -336 1344
WIRE -336 1488 -336 1456
WIRE 480 1616 432 1616
WIRE 848 1616 800 1616
WIRE 2400 1616 848 1616
WIRE 848 1648 800 1648
WIRE 2208 1648 848 1648
WIRE -192 1680 -224 1680
WIRE 480 1680 -112 1680
WIRE 848 1680 800 1680
WIRE 2016 1680 848 1680
WIRE 16 1712 -16 1712
WIRE 480 1712 96 1712
WIRE 848 1712 800 1712
WIRE 1824 1712 848 1712
WIRE 192 1744 160 1744
WIRE 480 1744 272 1744
WIRE 848 1744 800 1744
WIRE 1632 1744 848 1744
WIRE 848 1776 800 1776
WIRE 1440 1776 848 1776
WIRE 16 1792 -16 1792
WIRE 480 1792 96 1792
WIRE 848 1808 800 1808
WIRE 1248 1808 848 1808
WIRE -192 1824 -224 1824
WIRE 480 1824 -112 1824
WIRE 864 1840 800 1840
WIRE 1056 1840 864 1840
WIRE 480 1872 432 1872
WIRE 848 1872 800 1872
WIRE 864 1872 848 1872
WIRE 1344 2144 1152 2144
WIRE 1536 2144 1344 2144
WIRE 1728 2144 1536 2144
WIRE 1920 2144 1728 2144
WIRE 2112 2144 1920 2144
WIRE 2304 2144 2112 2144
WIRE 2496 2144 2304 2144
WIRE 1152 2176 1152 2144
WIRE 1344 2176 1344 2144
WIRE 1536 2176 1536 2144
WIRE 1728 2176 1728 2144
WIRE 1920 2176 1920 2144
WIRE 2112 2176 2112 2144
WIRE 2304 2176 2304 2144
WIRE 2496 2176 2496 2144
WIRE 864 2288 864 1872
WIRE 960 2288 864 2288
WIRE 1056 2288 1056 1840
WIRE 1152 2288 1152 2256
WIRE 1152 2288 1056 2288
WIRE 1248 2288 1248 1808
WIRE 1344 2288 1344 2256
WIRE 1344 2288 1248 2288
WIRE 1440 2288 1440 1776
WIRE 1536 2288 1536 2256
WIRE 1536 2288 1440 2288
WIRE 1632 2288 1632 1744
WIRE 1728 2288 1728 2256
WIRE 1728 2288 1632 2288
WIRE 1824 2288 1824 1712
WIRE 1920 2288 1920 2256
WIRE 1920 2288 1824 2288
WIRE 2016 2288 2016 1680
WIRE 2112 2288 2112 2256
WIRE 2112 2288 2016 2288
WIRE 2208 2288 2208 1648
WIRE 2304 2288 2304 2256
WIRE 2304 2288 2208 2288
WIRE 2400 2288 2400 1616
WIRE 2496 2288 2496 2256
WIRE 2496 2288 2400 2288
WIRE 864 2320 864 2288
WIRE 960 2320 960 2288
WIRE 1056 2320 1056 2288
WIRE 1152 2320 1152 2288
WIRE 1248 2320 1248 2288
WIRE 1344 2320 1344 2288
WIRE 1440 2320 1440 2288
WIRE 1536 2320 1536 2288
WIRE 1632 2320 1632 2288
WIRE 1728 2320 1728 2288
WIRE 1824 2320 1824 2288
WIRE 1920 2320 1920 2288
WIRE 2016 2320 2016 2288
WIRE 2112 2320 2112 2288
WIRE 2208 2320 2208 2288
WIRE 2304 2320 2304 2288
WIRE 2400 2320 2400 2288
WIRE 2496 2320 2496 2288
WIRE 864 2432 864 2384
WIRE 960 2432 960 2400
WIRE 960 2432 864 2432
WIRE 1056 2432 1056 2384
WIRE 1056 2432 960 2432
WIRE 1152 2432 1152 2400
WIRE 1152 2432 1056 2432
WIRE 1248 2432 1248 2384
WIRE 1248 2432 1152 2432
WIRE 1344 2432 1344 2400
WIRE 1344 2432 1248 2432
WIRE 1440 2432 1440 2384
WIRE 1440 2432 1344 2432
WIRE 1536 2432 1536 2400
WIRE 1536 2432 1440 2432
WIRE 1632 2432 1632 2384
WIRE 1632 2432 1536 2432
WIRE 1728 2432 1728 2400
WIRE 1728 2432 1632 2432
WIRE 1824 2432 1824 2384
WIRE 1824 2432 1728 2432
WIRE 1920 2432 1920 2400
WIRE 1920 2432 1824 2432
WIRE 2016 2432 2016 2384
WIRE 2016 2432 1920 2432
WIRE 2112 2432 2112 2400
WIRE 2112 2432 2016 2432
WIRE 2208 2432 2208 2384
WIRE 2208 2432 2112 2432
WIRE 2304 2432 2304 2400
WIRE 2304 2432 2208 2432
WIRE 2400 2432 2400 2384
WIRE 2400 2432 2304 2432
WIRE 2496 2432 2496 2400
WIRE 2496 2432 2400 2432
WIRE 864 2464 864 2432
FLAG 672 496 0
FLAG -336 640 0
FLAG -288 496 SRCLK
FLAG 432 1616 Vdd
FLAG 432 1872 0
FLAG -16 1712 SRCLK
FLAG -336 848 0
FLAG -288 704 SER
FLAG -224 1680 SER
FLAG -512 1376 0
FLAG -464 928 RCLK
FLAG 160 1744 RCLK
FLAG 720 352 Vdd
FLAG -336 1280 0
FLAG -288 1136 _OE
FLAG -224 1824 _OE
FLAG 864 2464 0
FLAG -336 1488 0
FLAG -288 1344 _SRCLR
FLAG -16 1792 _SRCLR
FLAG 848 1616 Qa
FLAG 848 1648 Qb
FLAG 848 1680 Qc
FLAG 848 1712 Qd
FLAG 848 1744 Qe
FLAG 848 1776 Qf
FLAG 848 1808 Qg
FLAG 864 1840 Qh
FLAG 848 1872 Qh_p
FLAG 2496 2144 Vdd
SYMBOL voltage 672 368 R0
WINDOW 123 0 0 Left 0
WINDOW 39 0 0 Left 0
SYMATTR InstName V1
SYMATTR Value 5
SYMBOL voltage -336 512 R0
WINDOW 123 0 0 Left 0
WINDOW 39 0 0 Left 0
SYMATTR InstName V2
SYMATTR Value PULSE(0 5 5u 2n 2n 0.1u 0.2u)
SYMBOL res 112 1696 R90
WINDOW 0 0 56 VBottom 2
WINDOW 3 32 56 VTop 2
SYMATTR InstName R9
SYMATTR Value 50
SYMBOL voltage -336 720 R0
WINDOW 123 0 0 Left 0
WINDOW 39 0 0 Left 0
SYMATTR InstName V4
SYMATTR Value PULSE(0 5 5.1u 2n 2n 0.2u 2u)
SYMBOL res -96 1664 R90
WINDOW 0 0 56 VBottom 2
WINDOW 3 32 56 VTop 2
SYMATTR InstName R10
SYMATTR Value 50
SYMBOL voltage -512 944 R0
WINDOW 123 0 0 Left 0
WINDOW 39 0 0 Left 0
SYMATTR InstName V5
SYMATTR Value PULSE(0 5 5.3u 2n 2n 0.1u 0.2u 9)
SYMBOL res 288 1728 R90
WINDOW 0 0 56 VBottom 2
WINDOW 3 32 56 VTop 2
SYMATTR InstName R11
SYMATTR Value 50
SYMBOL voltage -336 1152 R0
WINDOW 123 0 0 Left 0
WINDOW 39 0 0 Left 0
SYMATTR InstName V3
SYMATTR Value PULSE(0 5 7.0u 2n 2n 0.4u 4u 1)
SYMBOL res -96 1808 R90
WINDOW 0 0 56 VBottom 2
WINDOW 3 32 56 VTop 2
SYMATTR InstName R1
SYMATTR Value 50
SYMBOL cap 848 2320 R0
SYMATTR InstName C1
SYMATTR Value 50p
SYMBOL res 944 2304 R0
SYMATTR InstName R2
SYMATTR Value 500
SYMBOL cap 1040 2320 R0
SYMATTR InstName C2
SYMATTR Value 50p
SYMBOL res 1136 2304 R0
SYMATTR InstName R3
SYMATTR Value 500
SYMBOL cap 1232 2320 R0
SYMATTR InstName C3
SYMATTR Value 50p
SYMBOL res 1328 2304 R0
SYMATTR InstName R4
SYMATTR Value 500
SYMBOL cap 1424 2320 R0
SYMATTR InstName C4
SYMATTR Value 50p
SYMBOL res 1520 2304 R0
SYMATTR InstName R5
SYMATTR Value 500
SYMBOL cap 1616 2320 R0
SYMATTR InstName C5
SYMATTR Value 50p
SYMBOL res 1712 2304 R0
SYMATTR InstName R6
SYMATTR Value 500
SYMBOL cap 1808 2320 R0
SYMATTR InstName C6
SYMATTR Value 50p
SYMBOL res 1904 2304 R0
SYMATTR InstName R7
SYMATTR Value 500
SYMBOL cap 2000 2320 R0
SYMATTR InstName C7
SYMATTR Value 50p
SYMBOL res 2096 2304 R0
SYMATTR InstName R8
SYMATTR Value 500
SYMBOL cap 2192 2320 R0
SYMATTR InstName C8
SYMATTR Value 50p
SYMBOL res 2288 2304 R0
SYMATTR InstName R12
SYMATTR Value 500
SYMBOL cap 2384 2320 R0
SYMATTR InstName C9
SYMATTR Value 50p
SYMBOL res 2480 2304 R0
SYMATTR InstName R13
SYMATTR Value 500
SYMBOL voltage -336 1360 R0
WINDOW 123 0 0 Left 0
WINDOW 39 0 0 Left 0
SYMATTR InstName V6
SYMATTR Value PULSE(0 5 5.1u 2n 2n 2.9u 3.1u)
SYMBOL res 112 1776 R90
WINDOW 0 0 56 VBottom 2
WINDOW 3 32 56 VTop 2
SYMATTR InstName R14
SYMATTR Value 50
SYMBOL shift_register 640 1744 R0
SYMATTR InstName X1
SYMBOL voltage -512 1184 M0
WINDOW 123 0 0 Left 0
WINDOW 39 0 0 Left 0
SYMATTR InstName V7
SYMATTR Value PULSE(0 5 7.3u 2n 2n 0.1u 0.8u 9)
SYMBOL res 2480 2160 R0
SYMATTR InstName R15
SYMATTR Value 500
SYMBOL res 1136 2160 R0
SYMATTR InstName R16
SYMATTR Value 500
SYMBOL res 1328 2160 R0
SYMATTR InstName R17
SYMATTR Value 500
SYMBOL res 1520 2160 R0
SYMATTR InstName R18
SYMATTR Value 500
SYMBOL res 1712 2160 R0
SYMATTR InstName R19
SYMATTR Value 500
SYMBOL res 1904 2160 R0
SYMATTR InstName R20
SYMATTR Value 500
SYMBOL res 2096 2160 R0
SYMATTR InstName R21
SYMATTR Value 500
SYMBOL res 2288 2160 R0
SYMATTR InstName R22
SYMATTR Value 500
TEXT 808 1064 Left 2 !.tran 0 8.5u 4u uic
TEXT 808 1040 Left 2 !.lib 5827_035.lib
