Version 4
SHEET 1 2484 4436
WIRE 384 32 336 32
WIRE 2304 32 704 32
WIRE 2112 64 704 64
WIRE 384 96 112 96
WIRE 1920 96 704 96
WIRE 384 128 112 128
WIRE 1728 128 704 128
WIRE 384 160 112 160
WIRE 1536 160 704 160
WIRE 1344 192 704 192
WIRE 384 208 112 208
WIRE 1152 224 704 224
WIRE 384 240 112 240
WIRE 960 256 704 256
WIRE 384 288 336 288
WIRE 768 288 704 288
WIRE -976 512 -1216 512
WIRE -784 512 -896 512
WIRE 1248 560 1056 560
WIRE 1440 560 1248 560
WIRE 1632 560 1440 560
WIRE 1824 560 1632 560
WIRE 2016 560 1824 560
WIRE 2208 560 2016 560
WIRE 2400 560 2208 560
WIRE 1056 592 1056 560
WIRE 1248 592 1248 560
WIRE 1440 592 1440 560
WIRE 1632 592 1632 560
WIRE 1824 592 1824 560
WIRE 2016 592 2016 560
WIRE 2208 592 2208 560
WIRE 2400 592 2400 560
WIRE -976 608 -1216 608
WIRE -784 608 -896 608
WIRE -976 704 -1216 704
WIRE -784 704 -896 704
WIRE 960 704 960 256
WIRE 1008 704 960 704
WIRE 1056 704 1056 672
WIRE 1056 704 1008 704
WIRE 1152 704 1152 224
WIRE 1200 704 1152 704
WIRE 1248 704 1248 672
WIRE 1248 704 1200 704
WIRE 1344 704 1344 192
WIRE 1392 704 1344 704
WIRE 1440 704 1440 672
WIRE 1440 704 1392 704
WIRE 1536 704 1536 160
WIRE 1584 704 1536 704
WIRE 1632 704 1632 672
WIRE 1632 704 1584 704
WIRE 1728 704 1728 128
WIRE 1776 704 1728 704
WIRE 1824 704 1824 672
WIRE 1824 704 1776 704
WIRE 1920 704 1920 96
WIRE 1968 704 1920 704
WIRE 2016 704 2016 672
WIRE 2016 704 1968 704
WIRE 2112 704 2112 64
WIRE 2160 704 2112 704
WIRE 2208 704 2208 672
WIRE 2208 704 2160 704
WIRE 2304 704 2304 32
WIRE 2352 704 2304 704
WIRE 2400 704 2400 672
WIRE 2400 704 2352 704
WIRE 960 736 960 704
WIRE 1056 736 1056 704
WIRE 1152 736 1152 704
WIRE 1248 736 1248 704
WIRE 1344 736 1344 704
WIRE 1440 736 1440 704
WIRE 1536 736 1536 704
WIRE 1632 736 1632 704
WIRE 1728 736 1728 704
WIRE 1824 736 1824 704
WIRE 1920 736 1920 704
WIRE 2016 736 2016 704
WIRE 2112 736 2112 704
WIRE 2208 736 2208 704
WIRE 2304 736 2304 704
WIRE 2400 736 2400 704
WIRE -976 800 -1216 800
WIRE -784 800 -896 800
WIRE 768 848 768 288
WIRE 768 848 224 848
WIRE 960 848 960 800
WIRE 1056 848 1056 816
WIRE 1056 848 960 848
WIRE 1152 848 1152 800
WIRE 1152 848 1056 848
WIRE 1248 848 1248 816
WIRE 1248 848 1152 848
WIRE 1344 848 1344 800
WIRE 1344 848 1248 848
WIRE 1440 848 1440 816
WIRE 1440 848 1344 848
WIRE 1536 848 1536 800
WIRE 1536 848 1440 848
WIRE 1632 848 1632 816
WIRE 1632 848 1536 848
WIRE 1728 848 1728 800
WIRE 1728 848 1632 848
WIRE 1824 848 1824 816
WIRE 1824 848 1728 848
WIRE 1920 848 1920 800
WIRE 1920 848 1824 848
WIRE 2016 848 2016 816
WIRE 2016 848 1920 848
WIRE 2112 848 2112 800
WIRE 2112 848 2016 848
WIRE 2208 848 2208 816
WIRE 2208 848 2112 848
WIRE 2304 848 2304 800
WIRE 2304 848 2208 848
WIRE 2400 848 2400 816
WIRE 2400 848 2304 848
WIRE 960 880 960 848
WIRE -1136 896 -1216 896
WIRE -976 896 -1136 896
WIRE -784 896 -896 896
WIRE -1136 912 -1136 896
WIRE -976 992 -1216 992
WIRE -784 992 -896 992
WIRE 384 1168 336 1168
WIRE 2304 1168 704 1168
WIRE 2112 1200 704 1200
WIRE -1168 1232 -1216 1232
WIRE -656 1232 -704 1232
WIRE -368 1232 -416 1232
WIRE 224 1232 224 848
WIRE 384 1232 224 1232
WIRE 1920 1232 704 1232
WIRE -1168 1264 -1168 1232
WIRE -656 1264 -656 1232
WIRE -416 1264 -416 1232
WIRE 384 1264 112 1264
WIRE 1728 1264 704 1264
WIRE 384 1296 112 1296
WIRE 1536 1296 704 1296
WIRE 1344 1328 704 1328
WIRE 384 1344 112 1344
WIRE 1152 1360 704 1360
WIRE -416 1376 -416 1344
WIRE 384 1376 112 1376
WIRE 960 1392 704 1392
WIRE -1168 1408 -1168 1344
WIRE -656 1408 -656 1344
WIRE 384 1424 336 1424
WIRE 768 1424 704 1424
WIRE -368 1440 -416 1440
WIRE -416 1472 -416 1440
WIRE -1168 1552 -1168 1488
WIRE -656 1552 -656 1488
WIRE -416 1584 -416 1552
WIRE -368 1664 -416 1664
WIRE -1168 1696 -1168 1632
WIRE -656 1696 -656 1632
WIRE -416 1696 -416 1664
WIRE 1248 1696 1056 1696
WIRE 1440 1696 1248 1696
WIRE 1632 1696 1440 1696
WIRE 1824 1696 1632 1696
WIRE 2016 1696 1824 1696
WIRE 2208 1696 2016 1696
WIRE 2400 1696 2208 1696
WIRE 1056 1728 1056 1696
WIRE 1248 1728 1248 1696
WIRE 1440 1728 1440 1696
WIRE 1632 1728 1632 1696
WIRE 1824 1728 1824 1696
WIRE 2016 1728 2016 1696
WIRE 2208 1728 2208 1696
WIRE 2400 1728 2400 1696
WIRE -1168 1840 -1168 1776
WIRE -656 1840 -656 1776
WIRE -416 1840 -416 1776
WIRE 960 1840 960 1392
WIRE 1008 1840 960 1840
WIRE 1056 1840 1056 1808
WIRE 1056 1840 1008 1840
WIRE 1152 1840 1152 1360
WIRE 1200 1840 1152 1840
WIRE 1248 1840 1248 1808
WIRE 1248 1840 1200 1840
WIRE 1344 1840 1344 1328
WIRE 1392 1840 1344 1840
WIRE 1440 1840 1440 1808
WIRE 1440 1840 1392 1840
WIRE 1536 1840 1536 1296
WIRE 1584 1840 1536 1840
WIRE 1632 1840 1632 1808
WIRE 1632 1840 1584 1840
WIRE 1728 1840 1728 1264
WIRE 1776 1840 1728 1840
WIRE 1824 1840 1824 1808
WIRE 1824 1840 1776 1840
WIRE 1920 1840 1920 1232
WIRE 1968 1840 1920 1840
WIRE 2016 1840 2016 1808
WIRE 2016 1840 1968 1840
WIRE 2112 1840 2112 1200
WIRE 2160 1840 2112 1840
WIRE 2208 1840 2208 1808
WIRE 2208 1840 2160 1840
WIRE 2304 1840 2304 1168
WIRE 2352 1840 2304 1840
WIRE 2400 1840 2400 1808
WIRE 2400 1840 2352 1840
WIRE 960 1872 960 1840
WIRE 1056 1872 1056 1840
WIRE 1152 1872 1152 1840
WIRE 1248 1872 1248 1840
WIRE 1344 1872 1344 1840
WIRE 1440 1872 1440 1840
WIRE 1536 1872 1536 1840
WIRE 1632 1872 1632 1840
WIRE 1728 1872 1728 1840
WIRE 1824 1872 1824 1840
WIRE 1920 1872 1920 1840
WIRE 2016 1872 2016 1840
WIRE 2112 1872 2112 1840
WIRE 2208 1872 2208 1840
WIRE 2304 1872 2304 1840
WIRE 2400 1872 2400 1840
WIRE -1168 1984 -1168 1920
WIRE -656 1984 -656 1920
WIRE -416 1984 -416 1920
WIRE 768 1984 768 1424
WIRE 768 1984 224 1984
WIRE 960 1984 960 1936
WIRE 1056 1984 1056 1952
WIRE 1056 1984 960 1984
WIRE 1152 1984 1152 1936
WIRE 1152 1984 1056 1984
WIRE 1248 1984 1248 1952
WIRE 1248 1984 1152 1984
WIRE 1344 1984 1344 1936
WIRE 1344 1984 1248 1984
WIRE 1440 1984 1440 1952
WIRE 1440 1984 1344 1984
WIRE 1536 1984 1536 1936
WIRE 1536 1984 1440 1984
WIRE 1632 1984 1632 1952
WIRE 1632 1984 1536 1984
WIRE 1728 1984 1728 1936
WIRE 1728 1984 1632 1984
WIRE 1824 1984 1824 1952
WIRE 1824 1984 1728 1984
WIRE 1920 1984 1920 1936
WIRE 1920 1984 1824 1984
WIRE 2016 1984 2016 1952
WIRE 2016 1984 1920 1984
WIRE 2112 1984 2112 1936
WIRE 2112 1984 2016 1984
WIRE 2208 1984 2208 1952
WIRE 2208 1984 2112 1984
WIRE 2304 1984 2304 1936
WIRE 2304 1984 2208 1984
WIRE 2400 1984 2400 1952
WIRE 2400 1984 2304 1984
WIRE 960 2016 960 1984
FLAG 336 32 Vdd
FLAG 336 288 0
FLAG 112 128 SRCLK
FLAG 112 96 SER
FLAG 112 160 RCLK
FLAG 112 240 _OE
FLAG 112 208 _SRCLR
FLAG 2400 560 Vdd
FLAG -416 1376 0
FLAG -368 1232 Vdd
FLAG 336 1168 Vdd
FLAG 336 1424 0
FLAG 112 1264 SRCLK
FLAG 112 1296 RCLK
FLAG 112 1376 _OE
FLAG 112 1344 _SRCLR
FLAG 2400 1696 Vdd
FLAG 1008 704 out0
FLAG 1200 704 out1
FLAG 1392 704 out2
FLAG 1584 704 out3
FLAG 1776 704 out4
FLAG 1968 704 out5
FLAG 2160 704 out6
FLAG 2352 704 out7
FLAG 1008 1840 out8
FLAG 1200 1840 out9
FLAG 1392 1840 out10
FLAG 1584 1840 out11
FLAG 1776 1840 out12
FLAG 1968 1840 out13
FLAG 2160 1840 out14
FLAG 2352 1840 out15
FLAG 960 880 0
FLAG 960 2016 0
FLAG -784 608 SRCLK
FLAG -784 704 RCLK
FLAG -784 896 _OE
FLAG -784 800 _SRCLR
FLAG -784 512 SER
FLAG -1216 704 SPI_CS
FLAG -1216 512 SPI_DOUT
FLAG -1216 608 SPI_CLK
FLAG -1216 800 CHAIN_CLR
FLAG -1216 896 CHAIN_HIZ
FLAG -1136 912 0
FLAG -1216 992 Vdd
FLAG -784 992 CHAIN_HIZ
FLAG -416 1984 0
FLAG -1216 1232 SPI_CLK
FLAG -416 1584 0
FLAG -368 1440 CHAIN_CLR
FLAG -368 1664 SPI_CS
FLAG -704 1232 SPI_DOUT
FLAG -1168 1984 0
FLAG -656 1984 0
SYMBOL res -880 592 R90
WINDOW 0 0 56 VBottom 2
WINDOW 3 32 56 VTop 2
SYMATTR InstName R1
SYMATTR Value 50
SYMBOL res -880 496 R90
WINDOW 0 0 56 VBottom 2
WINDOW 3 32 56 VTop 2
SYMATTR InstName R2
SYMATTR Value 50
SYMBOL res -880 688 R90
WINDOW 0 0 56 VBottom 2
WINDOW 3 32 56 VTop 2
SYMATTR InstName R3
SYMATTR Value 50
SYMBOL res -880 880 R90
WINDOW 0 0 56 VBottom 2
WINDOW 3 32 56 VTop 2
SYMATTR InstName R4
SYMATTR Value 50
SYMBOL res -880 784 R90
WINDOW 0 0 56 VBottom 2
WINDOW 3 32 56 VTop 2
SYMATTR InstName R5
SYMATTR Value 50
SYMBOL shift_register 544 160 R0
SYMATTR InstName X1
SYMBOL cap 944 736 R0
SYMATTR InstName C2
SYMATTR Value 50p
SYMBOL res 1040 720 R0
SYMATTR InstName R7
SYMATTR Value 500
SYMBOL cap 1136 736 R0
SYMATTR InstName C3
SYMATTR Value 50p
SYMBOL res 1232 720 R0
SYMATTR InstName R8
SYMATTR Value 500
SYMBOL cap 1328 736 R0
SYMATTR InstName C4
SYMATTR Value 50p
SYMBOL res 1424 720 R0
SYMATTR InstName R9
SYMATTR Value 500
SYMBOL cap 1520 736 R0
SYMATTR InstName C5
SYMATTR Value 50p
SYMBOL res 1616 720 R0
SYMATTR InstName R10
SYMATTR Value 500
SYMBOL cap 1712 736 R0
SYMATTR InstName C6
SYMATTR Value 50p
SYMBOL res 1808 720 R0
SYMATTR InstName R11
SYMATTR Value 500
SYMBOL cap 1904 736 R0
SYMATTR InstName C7
SYMATTR Value 50p
SYMBOL res 2000 720 R0
SYMATTR InstName R12
SYMATTR Value 500
SYMBOL cap 2096 736 R0
SYMATTR InstName C8
SYMATTR Value 50p
SYMBOL res 2192 720 R0
SYMATTR InstName R13
SYMATTR Value 500
SYMBOL cap 2288 736 R0
SYMATTR InstName C9
SYMATTR Value 50p
SYMBOL res 2384 720 R0
SYMATTR InstName R14
SYMATTR Value 500
SYMBOL res 2384 576 R0
SYMATTR InstName R15
SYMATTR Value 500
SYMBOL res 1040 576 R0
SYMATTR InstName R16
SYMATTR Value 500
SYMBOL res 1232 576 R0
SYMATTR InstName R17
SYMATTR Value 500
SYMBOL res 1424 576 R0
SYMATTR InstName R18
SYMATTR Value 500
SYMBOL res 1616 576 R0
SYMATTR InstName R19
SYMATTR Value 500
SYMBOL res 1808 576 R0
SYMATTR InstName R20
SYMATTR Value 500
SYMBOL res 2000 576 R0
SYMATTR InstName R21
SYMATTR Value 500
SYMBOL res 2192 576 R0
SYMATTR InstName R22
SYMATTR Value 500
SYMBOL voltage -416 1248 R0
WINDOW 123 0 0 Left 0
WINDOW 39 0 0 Left 0
SYMATTR InstName V1
SYMATTR Value 5
SYMBOL shift_register 544 1296 R0
SYMATTR InstName X2
SYMBOL cap 944 1872 R0
SYMATTR InstName C11
SYMATTR Value 50p
SYMBOL res 1040 1856 R0
SYMATTR InstName R29
SYMATTR Value 500
SYMBOL cap 1136 1872 R0
SYMATTR InstName C12
SYMATTR Value 50p
SYMBOL res 1232 1856 R0
SYMATTR InstName R30
SYMATTR Value 500
SYMBOL cap 1328 1872 R0
SYMATTR InstName C13
SYMATTR Value 50p
SYMBOL res 1424 1856 R0
SYMATTR InstName R31
SYMATTR Value 500
SYMBOL cap 1520 1872 R0
SYMATTR InstName C14
SYMATTR Value 50p
SYMBOL res 1616 1856 R0
SYMATTR InstName R32
SYMATTR Value 500
SYMBOL cap 1712 1872 R0
SYMATTR InstName C15
SYMATTR Value 50p
SYMBOL res 1808 1856 R0
SYMATTR InstName R33
SYMATTR Value 500
SYMBOL cap 1904 1872 R0
SYMATTR InstName C16
SYMATTR Value 50p
SYMBOL res 2000 1856 R0
SYMATTR InstName R34
SYMATTR Value 500
SYMBOL cap 2096 1872 R0
SYMATTR InstName C17
SYMATTR Value 50p
SYMBOL res 2192 1856 R0
SYMATTR InstName R35
SYMATTR Value 500
SYMBOL cap 2288 1872 R0
SYMATTR InstName C18
SYMATTR Value 50p
SYMBOL res 2384 1856 R0
SYMATTR InstName R36
SYMATTR Value 500
SYMBOL res 2384 1712 R0
SYMATTR InstName R37
SYMATTR Value 500
SYMBOL res 1040 1712 R0
SYMATTR InstName R38
SYMATTR Value 500
SYMBOL res 1232 1712 R0
SYMATTR InstName R39
SYMATTR Value 500
SYMBOL res 1424 1712 R0
SYMATTR InstName R40
SYMATTR Value 500
SYMBOL res 1616 1712 R0
SYMATTR InstName R41
SYMATTR Value 500
SYMBOL res 1808 1712 R0
SYMATTR InstName R42
SYMATTR Value 500
SYMBOL res 2000 1712 R0
SYMATTR InstName R43
SYMATTR Value 500
SYMBOL res 2192 1712 R0
SYMATTR InstName R44
SYMATTR Value 500
SYMBOL res -880 976 R90
WINDOW 0 0 56 VBottom 2
WINDOW 3 32 56 VTop 2
SYMATTR InstName R6
SYMATTR Value 10k
SYMBOL voltage -416 1456 R0
WINDOW 123 0 0 Left 0
WINDOW 39 0 0 Left 0
SYMATTR InstName V4
SYMATTR Value PULSE(0 5 1.1u 2n 2n 3.9u 4u)
SYMBOL voltage -416 1680 R0
WINDOW 123 0 0 Left 0
WINDOW 39 0 0 Left 0
SYMATTR InstName V11
SYMATTR Value PULSE(0 5 0.8u 2n 2n 3.9u 4u)
SYMBOL voltage -416 1824 R0
WINDOW 123 0 0 Left 0
WINDOW 39 0 0 Left 0
SYMATTR InstName V12
SYMATTR Value PULSE(0 -5 5.3u 2n 2n 0.1u 4u)
SYMBOL voltage -656 1248 M0
WINDOW 123 0 0 Left 0
WINDOW 39 0 0 Left 0
SYMATTR InstName V13
SYMATTR Value PULSE(5 0 1.5u 2n 2n 0.1u 0.2u 16)
SYMBOL voltage -1168 1248 M0
WINDOW 123 0 0 Left 0
WINDOW 39 0 0 Left 0
SYMATTR InstName V14
SYMATTR Value PULSE(5 0 1.55u 2n 2n 0.1u 0.2u 16)
SYMBOL voltage -656 1392 M0
WINDOW 123 0 0 Left 0
WINDOW 39 0 0 Left 0
SYMATTR InstName V15
SYMATTR Value PULSE(5 0 5.5µ 2n 2n 0.2u 0.4u 8)
SYMBOL voltage -656 1536 M0
WINDOW 123 0 0 Left 0
WINDOW 39 0 0 Left 0
SYMATTR InstName V16
SYMATTR Value PULSE(5 0 9.5u 2n 2n 0.4u 0.8u 4)
SYMBOL voltage -656 1680 M0
WINDOW 123 0 0 Left 0
WINDOW 39 0 0 Left 0
SYMATTR InstName V17
SYMATTR Value PULSE(5 0 13.5u 2n 2n 1.6u 3.2u 1)
SYMBOL voltage -1168 1392 M0
WINDOW 123 0 0 Left 0
WINDOW 39 0 0 Left 0
SYMATTR InstName V18
SYMATTR Value PULSE(5 0 5.55u 2n 2n 0.1u 0.2u 16)
SYMBOL voltage -1168 1536 M0
WINDOW 123 0 0 Left 0
WINDOW 39 0 0 Left 0
SYMATTR InstName V19
SYMATTR Value PULSE(5 0 9.55u 2n 2n 0.1u 0.2u 16)
SYMBOL voltage -1168 1680 M0
WINDOW 123 0 0 Left 0
WINDOW 39 0 0 Left 0
SYMATTR InstName V20
SYMATTR Value PULSE(5 0 13.55u 2n 2n 0.1u 0.2u 16)
SYMBOL voltage -1168 1824 R0
WINDOW 123 0 0 Left 0
WINDOW 39 0 0 Left 0
SYMATTR InstName V21
SYMATTR Value -15
SYMBOL voltage -656 1824 R0
WINDOW 123 0 0 Left 0
WINDOW 39 0 0 Left 0
SYMATTR InstName V22
SYMATTR Value -15
TEXT -360 648 Left 2 !.tran 0 17.9u 0.9u uic
TEXT -360 624 Left 2 !.lib 5827_035.lib
