Version 4
SHEET 1 2060 1268
WIRE -160 -16 -160 -48
WIRE 1024 0 976 0
WIRE 1120 0 1024 0
WIRE 1024 16 1024 0
WIRE 480 48 464 48
WIRE 672 48 480 48
WIRE 976 48 976 0
WIRE 976 48 928 48
WIRE -160 80 -160 64
WIRE 560 96 464 96
WIRE 672 96 640 96
WIRE 1024 96 1024 80
WIRE 1024 96 928 96
WIRE 1120 96 1024 96
WIRE 496 144 464 144
WIRE 672 144 576 144
WIRE 960 144 928 144
WIRE 1136 144 1040 144
WIRE -160 192 -160 160
WIRE 560 192 464 192
WIRE 672 192 640 192
WIRE 1024 192 928 192
WIRE 1136 192 1104 192
WIRE 496 240 464 240
WIRE 672 240 496 240
WIRE 1136 240 928 240
WIRE 496 288 464 288
WIRE 672 288 496 288
WIRE 1136 288 928 288
WIRE -160 336 -160 304
WIRE 496 336 464 336
WIRE 672 336 496 336
WIRE 1136 336 928 336
WIRE 496 384 464 384
WIRE 672 384 496 384
WIRE 1136 384 928 384
WIRE -160 448 -160 416
WIRE 224 864 192 864
WIRE 336 864 304 864
WIRE 352 864 336 864
WIRE 1440 864 1328 864
WIRE 192 896 192 864
WIRE 1440 912 1440 864
WIRE 1328 928 1328 864
WIRE 320 944 288 944
WIRE 432 944 400 944
WIRE 448 944 432 944
WIRE 288 976 288 944
WIRE 192 1008 192 976
WIRE 432 1024 400 1024
WIRE 544 1024 512 1024
WIRE 560 1024 544 1024
WIRE 1328 1040 1328 992
WIRE 1440 1040 1440 992
WIRE 400 1056 400 1024
WIRE 288 1088 288 1056
WIRE 528 1104 496 1104
WIRE 640 1104 608 1104
WIRE 656 1104 640 1104
WIRE 496 1136 496 1104
WIRE 400 1168 400 1136
WIRE 496 1248 496 1216
FLAG -160 192 0
FLAG -160 -48 5V
FLAG -160 448 0
FLAG -160 304 CLK
FLAG 1440 1040 0
FLAG 1328 1040 0
FLAG 464 96 0
FLAG 464 144 0
FLAG 1120 96 0
FLAG 1120 0 5V
FLAG 480 48 CLK
FLAG 192 1008 0
FLAG 1136 144 0
FLAG 1136 192 0
FLAG 336 864 in_1
FLAG 288 1088 0
FLAG 432 944 in_2
FLAG 400 1168 0
FLAG 544 1024 in_3
FLAG 496 1248 0
FLAG 640 1104 in_4
FLAG 496 240 in_1
FLAG 496 288 in_2
FLAG 496 336 in_3
FLAG 496 384 in_4
FLAG 464 192 0
SYMBOL voltage -160 64 R0
WINDOW 123 0 0 Left 0
WINDOW 39 0 0 Left 0
SYMATTR InstName V1
SYMATTR Value 5
SYMBOL voltage -160 320 R0
WINDOW 123 0 0 Left 0
WINDOW 39 0 0 Left 0
SYMATTR InstName V2
SYMATTR Value PULSE(0 5 10m 2n 2n 1m 2m)
SYMBOL 74XX173 800 208 R0
SYMATTR InstName X1
SYMBOL res 1424 896 R0
SYMATTR InstName R1
SYMATTR Value 500
SYMBOL cap 1312 928 R0
SYMATTR InstName C1
SYMATTR Value 50p
SYMBOL cap 1008 16 R0
SYMATTR InstName C2
SYMATTR Value 0.1µ
SYMBOL res -176 -32 R0
SYMATTR InstName R5
SYMATTR Value 1
SYMBOL voltage 192 880 M0
WINDOW 123 0 0 Left 0
WINDOW 39 0 0 Left 0
SYMATTR InstName V5
SYMATTR Value PULSE(0 5 10.55m 2n 2n 2m 4m)
SYMBOL res 208 848 M90
WINDOW 0 0 56 VBottom 2
WINDOW 3 32 56 VTop 2
SYMATTR InstName R2
SYMATTR Value 50
SYMBOL res 656 80 R90
WINDOW 0 0 56 VBottom 2
WINDOW 3 32 56 VTop 2
SYMATTR InstName R3
SYMATTR Value 10k
SYMBOL res 592 128 R90
WINDOW 0 0 56 VBottom 2
WINDOW 3 32 56 VTop 2
SYMATTR InstName R4
SYMATTR Value 10k
SYMBOL res 944 128 M90
WINDOW 0 0 56 VBottom 2
WINDOW 3 32 56 VTop 2
SYMATTR InstName R6
SYMATTR Value 10k
SYMBOL res 1008 176 M90
WINDOW 0 0 56 VBottom 2
WINDOW 3 32 56 VTop 2
SYMATTR InstName R7
SYMATTR Value 10k
SYMBOL res 304 928 M90
WINDOW 0 0 56 VBottom 2
WINDOW 3 32 56 VTop 2
SYMATTR InstName R8
SYMATTR Value 50
SYMBOL res 416 1008 M90
WINDOW 0 0 56 VBottom 2
WINDOW 3 32 56 VTop 2
SYMATTR InstName R9
SYMATTR Value 50
SYMBOL res 512 1088 M90
WINDOW 0 0 56 VBottom 2
WINDOW 3 32 56 VTop 2
SYMATTR InstName R10
SYMATTR Value 50
SYMBOL res 544 176 M90
WINDOW 0 0 56 VBottom 2
WINDOW 3 32 56 VTop 2
SYMATTR InstName R11
SYMATTR Value 10k
SYMBOL voltage 288 960 M0
WINDOW 123 0 0 Left 0
WINDOW 39 0 0 Left 0
SYMATTR InstName V3
SYMATTR Value PULSE(0 5 10.56m 2n 2n 2m 4m)
SYMBOL voltage 400 1040 M0
WINDOW 123 0 0 Left 0
WINDOW 39 0 0 Left 0
SYMATTR InstName V4
SYMATTR Value PULSE(0 5 10.57m 2n 2n 2m 4m)
SYMBOL voltage 496 1120 M0
WINDOW 123 0 0 Left 0
WINDOW 39 0 0 Left 0
SYMATTR InstName V6
SYMATTR Value PULSE(0 5 10.58m 2n 2n 2m 4m)
TEXT -192 472 Left 2 !.tran 0 24m 4m uic
TEXT -64 128 Left 2 !.lib 5827_035.lib
